Alpine_SI.dss
Clear

 New Circuit.ALPINE_Reduced bus1=SourceBus basekv=12 R1=0.063 X1=0.5495 R0=0.0152 X0=1.3295 Sequence=pos
New Line.0355_03551 Phases=3 bus1=0355.1.2.3 bus2=03551.1.2.3 Units=km Length=0.03392424 Rmatrix=[ 0.124562554681    0.0376202974628    0.0376202974628| 0.0376202974628     0.124562554681    0.0376202974628| 0.0376202974628    0.0376202974628     0.124562554681|] Xmatrix=[ 0.61209536308     0.234470691164     0.234470691164| 0.234470691164      0.61209536308     0.234470691164| 0.234470691164     0.234470691164      0.61209536308|] Cmatrix=[0                  0                  0| 0                  0                  0| 0                  0                  0|]
New Line.03551_03552 Phases=3 bus1=03551.1.2.3 bus2=03552.1.2.3 Units=km Length=0.020955 Rmatrix=[ 0.124562554681    0.0376202974628    0.0376202974628| 0.0376202974628     0.124562554681    0.0376202974628| 0.0376202974628    0.0376202974628     0.124562554681|] Xmatrix=[ 0.61209536308     0.234470691164     0.234470691164| 0.234470691164      0.61209536308     0.234470691164| 0.234470691164     0.234470691164     0.612095363079|] Cmatrix=[0                  0                  0| 0                  0                  0| 0                  0                  0|]
New Line.03552_03552a Phases=3 bus1=03552.1.2.3 bus2=03552a.1.2.3 Units=km Length=0.003048 Rmatrix=[ 0.124562554681    0.0376202974628    0.0376202974628| 0.0376202974628     0.124562554681    0.0376202974628| 0.0376202974628    0.0376202974628     0.124562554681|] Xmatrix=[0.612095363079     0.234470691164     0.234470691164| 0.234470691164      0.61209536308     0.234470691164| 0.234470691164     0.234470691164      0.61209536308|] Cmatrix=[0                  0                  0| 0                  0                  0| 0                  0                  0|]
New Line.035510_035511 Phases=3 bus1=035510.1.2.3 bus2=035511.1.2.3 Units=km Length=0.04946904 Rmatrix=[ 0.133530183727    0.0331364829397    0.0331364829397| 0.0331364829397     0.133530183727    0.0331364829396| 0.0331364829397    0.0331364829396     0.133530183727|] Xmatrix=[0.615157480315     0.232939632546     0.232939632546| 0.232939632546     0.615157480315     0.232939632546| 0.232939632546     0.232939632546     0.615157480315|] Cmatrix=[0                  0                  0| 0                  0                  0| 0                  0                  0|]
New Line.035510_035510a Phases=1 bus1=035510.1 bus2=035510a.1 Units=km Length=0.003048 Rmatrix=0.086942257 Xmatrix=0.37762467 Cmatrix=0
New Line.035511_035512 Phases=3 bus1=035511.1.2.3 bus2=035512.1.2.3 Units=km Length=0.04224528 Rmatrix=[ 0.133530183727    0.0331364829396    0.0331364829396| 0.0331364829396     0.133530183727    0.0331364829396| 0.0331364829396    0.0331364829396     0.133530183727|] Xmatrix=[0.615157480315     0.232939632546     0.232939632546| 0.232939632546     0.615157480315     0.232939632546| 0.232939632546     0.232939632546     0.615157480315|] Cmatrix=[0                  0                  0| 0                  0                  0| 0                  0                  0|]
New Line.035510a_03551001 Phases=1 bus1=035510a.1 bus2=03551001.1 Units=km Length=0.0201168 Rmatrix=0.59350394 Xmatrix=0.47276903 Cmatrix=0
New Line.035512_03551201 Phases=3 bus1=035512.1.2.3 bus2=03551201.1.2.3 Units=km Length=0.02523744 Rmatrix=[ 1.14752843395     0.137029746282     0.137029746282| 0.137029746282      1.14752843395     0.137029746282| 0.137029746282     0.137029746282      1.14752843395|] Xmatrix=[0.879811898513     0.356189851269     0.356189851269| 0.356189851269     0.879811898513     0.356189851269| 0.356189851269     0.356189851269     0.879811898513|] Cmatrix=[0                  0                  0| 0                  0                  0| 0                  0                  0|]
New Line.035512_035513 Phases=3 bus1=035512.1.2.3 bus2=035513.1.2.3 Units=km Length=0.12292584 Rmatrix=[ 0.133530183727    0.0331364829395    0.0331364829396| 0.0331364829395     0.133530183727    0.0331364829395| 0.0331364829396    0.0331364829395     0.133530183727|] Xmatrix=[0.615157480316     0.232939632546     0.232939632546| 0.232939632546     0.615157480315     0.232939632546| 0.232939632546     0.232939632546     0.615157480316|] Cmatrix=[0                  0                  0| 0                  0                  0| 0                  0                  0|]
New Line.03551201_03551202 Phases=3 bus1=03551201.1.2.3 bus2=03551202.1.2.3 Units=km Length=0.06272784 Rmatrix=[ 1.14752843395     0.137029746282     0.137029746282| 0.137029746282      1.14752843395     0.137029746282| 0.137029746282     0.137029746282      1.14752843395|] Xmatrix=[0.879811898513     0.356189851269     0.356189851269| 0.356189851269     0.879811898513     0.356189851269| 0.356189851269     0.356189851269     0.879811898513|] Cmatrix=[0                  0                  0| 0                  0                  0| 0                  0                  0|]
New Line.035513_03551306 Phases=3 bus1=035513.1.2.3 bus2=03551306.1.2.3 Units=km Length=0.06854952 Rmatrix=[    1.08223972     0.138998250212     0.138998250223| 0.138998250212      1.08223972004     0.138998250221| 0.138998250223     0.138998250221      1.08223972004|] Xmatrix=[0.838692038503     0.348534558178     0.348534558176| 0.348534558178     0.838692038495     0.348534558182| 0.348534558176     0.348534558182     0.838692038494|] Cmatrix=[0                  0                  0| 0                  0                  0| 0                  0                  0|]
New Line.035513_035514 Phases=3 bus1=035513.1.2.3 bus2=035514.1.2.3 Units=km Length=0.1220724 Rmatrix=[ 0.216097987752    0.0563210848644    0.0563210848644| 0.0563210848644     0.216097987752    0.0563210848644| 0.0563210848644    0.0563210848644     0.216097987751|] Xmatrix=[0.642497812773      0.24321959755      0.24321959755|  0.24321959755     0.642497812773      0.24321959755|  0.24321959755      0.24321959755     0.642497812773|] Cmatrix=[0                  0                  0| 0                  0                  0| 0                  0                  0|]
New Line.035513_035513a Phases=2 bus1=035513.1.3 bus2=035513a.1.3 Units=km Length=0.003048 Rmatrix=[ 0.124562554681    0.0376202974628| 0.0376202974628     0.124562554681|] Xmatrix=[ 0.61209536308     0.234470691164| 0.234470691164      0.61209536308|] Cmatrix=[0                  0| 0                  0|]
New Line.035513_03551394 Phases=2 bus1=035513.2.3 bus2=03551394.2.3 Units=km Length=0.0909828 Rmatrix=[ 1.63582677164     0.138451443526| 0.138451443526      1.63582677169|] Xmatrix=[0.902559055115     0.394685039385| 0.394685039385     0.902559055104|] Cmatrix=[0                  0| 0                  0|]
New Line.03551306_03551392 Phases=2 bus1=03551306.1.3 bus2=03551392.1.3 Units=km Length=0.04721352 Rmatrix=[ 1.63582677165     0.138451443569| 0.138451443569      1.63582677165|] Xmatrix=[0.902559055118      0.39468503937|  0.39468503937     0.902559055119|] Cmatrix=[0                  0| 0                  0|]
New Line.03551306_03551306a Phases=3 bus1=03551306.1.2.3 bus2=03551306a.1.2.3 Units=km Length=0.003048 Rmatrix=[ 0.124562554681    0.0376202974628    0.0376202974628| 0.0376202974628     0.124562554681    0.0376202974628| 0.0376202974628    0.0376202974628     0.124562554681|] Xmatrix=[ 0.61209536308     0.234470691164     0.234470691164| 0.234470691164      0.61209536308     0.234470691164| 0.234470691164     0.234470691164     0.612095363079|] Cmatrix=[0                  0                  0| 0                  0                  0| 0                  0                  0|]
New Line.03551394_03551394a Phases=2 bus1=03551394.2.3 bus2=03551394a.2.3 Units=km Length=0.003048 Rmatrix=[ 0.124562554681    0.0376202974628| 0.0376202974628     0.124562554681|] Xmatrix=[0.612095363079     0.234470691164| 0.234470691164      0.61209536308|] Cmatrix=[0                  0| 0                  0|]
New Line.035514_035515 Phases=3 bus1=035514.1.2.3 bus2=035515.1.2.3 Units=km Length=0.1190244 Rmatrix=[ 0.216097987752    0.0563210848644    0.0563210848644| 0.0563210848644     0.216097987752    0.0563210848644| 0.0563210848644    0.0563210848644     0.216097987752|] Xmatrix=[0.642497812773      0.24321959755      0.24321959755|  0.24321959755     0.642497812773      0.24321959755|  0.24321959755      0.24321959755     0.642497812773|] Cmatrix=[0                  0                  0| 0                  0                  0| 0                  0                  0|]
New Line.03551301_03551305 Phases=2 bus1=03551301.1.3 bus2=03551305.1.3 Units=km Length=0.10448544 Rmatrix=[1.63582677165      0.13845144357| 0.13845144357      1.63582677165|] Xmatrix=[0.902559055118      0.39468503937|  0.39468503937     0.902559055119|] Cmatrix=[0                  0| 0                  0|]
New Line.03551301_03551301a Phases=2 bus1=03551301.1.3 bus2=03551301a.1.3 Units=km Length=0.003048 Rmatrix=[ 0.124562554681    0.0376202974628| 0.0376202974628     0.124562554681|] Xmatrix=[0.612095363079     0.234470691164| 0.234470691164      0.61209536308|] Cmatrix=[0                  0| 0                  0|]
New Line.03551301a_03551302 Phases=2 bus1=03551301a.1.3 bus2=03551302.1.3 Units=km Length=0.1018032 Rmatrix=[0.715441819773     0.121937882765| 0.121937882765     0.715441819772|] Xmatrix=[0.777996500438     0.305227471566| 0.305227471566     0.777996500436|] Cmatrix=[0                  0| 0                  0|]
New Line.03551302_03551303 Phases=2 bus1=03551302.1.3 bus2=03551303.1.3 Units=km Length=0.0454152 Rmatrix=[0.715441819773     0.121937882765| 0.121937882765     0.715441819773|] Xmatrix=[0.777996500437     0.305227471566| 0.305227471566     0.777996500437|] Cmatrix=[0                  0| 0                  0|]
New Line.03551302_03551304 Phases=2 bus1=03551302.1.3 bus2=03551304.1.3 Units=km Length=0.0597408 Rmatrix=[0.715441819773     0.121937882765| 0.121937882765     0.715441819773|] Xmatrix=[0.777996500437     0.305227471566| 0.305227471566     0.777996500437|] Cmatrix=[0                  0| 0                  0|]
New Line.03551392_03551393 Phases=2 bus1=03551392.1.3 bus2=03551393.1.3 Units=km Length=0.04471416 Rmatrix=[1.63582677165      0.13845144357| 0.13845144357      1.63582677165|] Xmatrix=[0.902559055118      0.39468503937|  0.39468503937     0.902559055118|] Cmatrix=[0                  0| 0                  0|]
New Line.03551306a_03551307 Phases=3 bus1=03551306a.1.2.3 bus2=03551307.1.2.3 Units=km Length=0.11402568 Rmatrix=[ 1.08223972004     0.138998250219     0.138998250218| 0.138998250219      1.08223972004     0.138998250219| 0.138998250218     0.138998250219      1.08223972003|] Xmatrix=[0.838692038496      0.34853455818      0.34853455818|  0.34853455818     0.838692038495      0.34853455818|  0.34853455818      0.34853455818     0.838692038495|] Cmatrix=[0                  0                  0| 0                  0                  0| 0                  0                  0|]
New Line.03551307_03551308 Phases=3 bus1=03551307.1.2.3 bus2=03551308.1.2.3 Units=km Length=0.0816864 Rmatrix=[ 1.08223972004     0.138998250218     0.138998250219| 0.138998250218      1.08223972004     0.138998250219| 0.138998250219     0.138998250219      1.08223972003|] Xmatrix=[0.838692038495      0.34853455818      0.34853455818|  0.34853455818     0.838692038495      0.34853455818|  0.34853455818      0.34853455818     0.838692038495|] Cmatrix=[0                  0                  0| 0                  0                  0| 0                  0                  0|]
New Line.03551308_03551314 Phases=3 bus1=03551308.1.2.3 bus2=03551314.1.2.3 Units=km Length=0.1306068 Rmatrix=[ 1.08223972003     0.138998250219     0.138998250219| 0.138998250219      1.08223972004     0.138998250219| 0.138998250219     0.138998250219      1.08223972003|] Xmatrix=[0.838692038495      0.34853455818      0.34853455818|  0.34853455818     0.838692038495      0.34853455818|  0.34853455818      0.34853455818     0.838692038494|] Cmatrix=[0                  0                  0| 0                  0                  0| 0                  0                  0|]
New Line.03551308_03551308a Phases=2 bus1=03551308.1.3 bus2=03551308a.1.3 Units=km Length=0.003048 Rmatrix=[ 0.124562554681    0.0376202974628| 0.0376202974628     0.124562554681|] Xmatrix=[ 0.61209536308     0.234470691164| 0.234470691164      0.61209536308|] Cmatrix=[0                  0| 0                  0|]
New Line.03551314_03551315 Phases=3 bus1=03551314.1.2.3 bus2=03551315.1.2.3 Units=km Length=0.09656064 Rmatrix=[ 1.08223972003     0.138998250219     0.138998250219| 0.138998250219      1.08223972003     0.138998250219| 0.138998250219     0.138998250219      1.08223972004|] Xmatrix=[0.838692038495      0.34853455818      0.34853455818|  0.34853455818     0.838692038495      0.34853455818|  0.34853455818      0.34853455818     0.838692038495|] Cmatrix=[0                  0                  0| 0                  0                  0| 0                  0                  0|]
New Line.03551314_03551367 Phases=2 bus1=03551314.2.3 bus2=03551367.2.3 Units=km Length=0.05967984 Rmatrix=[1.63582677165      0.13845144357| 0.13845144357      1.63582677165|] Xmatrix=[0.902559055119      0.39468503937|  0.39468503937     0.902559055119|] Cmatrix=[0                  0| 0                  0|]
New Line.03551308a_03551309 Phases=2 bus1=03551308a.1.3 bus2=03551309.1.3 Units=km Length=0.05099304 Rmatrix=[ 1.08223972003     0.138998250219| 0.138998250219      1.08223972004|] Xmatrix=[0.838692038495      0.34853455818|  0.34853455818     0.838692038496|] Cmatrix=[0                  0| 0                  0|]
New Line.03551308a_03551313 Phases=2 bus1=03551308a.1.3 bus2=03551313.1.3 Units=km Length=0.05449824 Rmatrix=[ 1.14752843395     0.137029746282| 0.137029746282      1.14752843395|] Xmatrix=[0.879811898513     0.356189851269| 0.356189851269     0.879811898513|] Cmatrix=[0                  0| 0                  0|]
New Line.03551309_03551310 Phases=2 bus1=03551309.1.3 bus2=03551310.1.3 Units=km Length=0.04962144 Rmatrix=[ 1.14752843395     0.137029746282| 0.137029746282      1.14752843395|] Xmatrix=[0.879811898513     0.356189851269| 0.356189851269     0.879811898513|] Cmatrix=[0                  0| 0                  0|]
New Line.03551310_03551311 Phases=2 bus1=03551310.1.3 bus2=03551311.1.3 Units=km Length=0.05148072 Rmatrix=[ 1.14752843395     0.137029746282| 0.137029746282      1.14752843395|] Xmatrix=[0.879811898513     0.356189851269| 0.356189851269     0.879811898513|] Cmatrix=[0                  0| 0                  0|]
New Line.03551311_03551312 Phases=2 bus1=03551311.1.3 bus2=03551312.1.3 Units=km Length=0.0950976 Rmatrix=[ 1.14752843395     0.137029746282| 0.137029746282      1.14752843395|] Xmatrix=[0.879811898513     0.356189851269| 0.356189851269     0.879811898513|] Cmatrix=[0                  0| 0                  0|]
New Line.03551315_03551316 Phases=3 bus1=03551315.1.2.3 bus2=03551316.1.2.3 Units=km Length=0.13636752 Rmatrix=[ 1.08223972003     0.138998250219     0.138998250219| 0.138998250219      1.08223972003     0.138998250219| 0.138998250219     0.138998250219      1.08223972004|] Xmatrix=[0.838692038495      0.34853455818      0.34853455818|  0.34853455818     0.838692038495      0.34853455818|  0.34853455818      0.34853455818     0.838692038495|] Cmatrix=[0                  0                  0| 0                  0                  0| 0                  0                  0|]
New Line.03551367_03551367a Phases=2 bus1=03551367.2.3 bus2=03551367a.2.3 Units=km Length=0.003048 Rmatrix=[ 0.124562554681    0.0376202974628| 0.0376202974628     0.124562554681|] Xmatrix=[ 0.61209536308     0.234470691164| 0.234470691164      0.61209536308|] Cmatrix=[0                  0| 0                  0|]
New Line.03551316_03551317 Phases=3 bus1=03551316.1.2.3 bus2=03551317.1.2.3 Units=km Length=0.0643128 Rmatrix=[ 1.08223972004     0.138998250219     0.138998250219| 0.138998250219      1.08223972003     0.138998250219| 0.138998250219     0.138998250219      1.08223972003|] Xmatrix=[0.838692038495      0.34853455818      0.34853455818|  0.34853455818     0.838692038495      0.34853455818|  0.34853455818      0.34853455818     0.838692038495|] Cmatrix=[0                  0                  0| 0                  0                  0| 0                  0                  0|]
New Line.03551317_03551318 Phases=3 bus1=03551317.1.2.3 bus2=03551318.1.2.3 Units=km Length=0.1033272 Rmatrix=[  0.44083552056    0.0910979877515    0.0910979877515| 0.0910979877515      0.44083552056    0.0910979877515| 0.0910979877515    0.0910979877515      0.44083552056|] Xmatrix=[0.735017497813     0.273403324584     0.273403324584| 0.273403324584     0.735017497813     0.273403324584| 0.273403324584     0.273403324584     0.735017497813|] Cmatrix=[0                  0                  0| 0                  0                  0| 0                  0                  0|]
New Line.03551318_03551319 Phases=3 bus1=03551318.1.2.3 bus2=03551319.1.2.3 Units=km Length=0.0621792 Rmatrix=[ 1.08223972003     0.138998250219     0.138998250219| 0.138998250219      1.08223972003     0.138998250219| 0.138998250219     0.138998250219      1.08223972003|] Xmatrix=[0.838692038495      0.34853455818      0.34853455818|  0.34853455818     0.838692038495      0.34853455818|  0.34853455818      0.34853455818     0.838692038495|] Cmatrix=[0                  0                  0| 0                  0                  0| 0                  0                  0|]
New Line.03551318_03551365 Phases=2 bus1=03551318.1.3 bus2=03551365.1.3 Units=km Length=0.0600456 Rmatrix=[ 1.08223972004     0.138998250219| 0.138998250219      1.08223972003|] Xmatrix=[0.838692038496      0.34853455818|  0.34853455818     0.838692038496|] Cmatrix=[0                  0| 0                  0|]
New Line.03551319_03551320 Phases=3 bus1=03551319.1.2.3 bus2=03551320.1.2.3 Units=km Length=0.07266432 Rmatrix=[ 1.08223972003     0.138998250219     0.138998250219| 0.138998250219      1.08223972004     0.138998250219| 0.138998250219     0.138998250219      1.08223972003|] Xmatrix=[0.838692038495      0.34853455818      0.34853455818|  0.34853455818     0.838692038495      0.34853455818|  0.34853455818      0.34853455818     0.838692038495|] Cmatrix=[0                  0                  0| 0                  0                  0| 0                  0                  0|]
New Line.03551365_03551366 Phases=2 bus1=03551365.1.3 bus2=03551366.1.3 Units=km Length=0.003048 Rmatrix=[ 1.08223972004     0.138998250219| 0.138998250219      1.08223972003|] Xmatrix=[0.838692038495      0.34853455818|  0.34853455818     0.838692038495|] Cmatrix=[0                  0| 0                  0|]
New Line.03551320_03551321 Phases=3 bus1=03551320.1.2.3 bus2=03551321.1.2.3 Units=km Length=0.06769608 Rmatrix=[ 1.08223972003     0.138998250219     0.138998250219| 0.138998250219      1.08223972004     0.138998250219| 0.138998250219     0.138998250219      1.08223972004|] Xmatrix=[0.838692038495      0.34853455818      0.34853455818|  0.34853455818     0.838692038495      0.34853455818|  0.34853455818      0.34853455818     0.838692038495|] Cmatrix=[0                  0                  0| 0                  0                  0| 0                  0                  0|]
New Line.03551321_03551322 Phases=3 bus1=03551321.1.2.3 bus2=03551322.1.2.3 Units=km Length=0.07687056 Rmatrix=[ 1.08223972003     0.138998250219     0.138998250219| 0.138998250219      1.08223972004     0.138998250219| 0.138998250219     0.138998250219      1.08223972004|] Xmatrix=[0.838692038495      0.34853455818      0.34853455818|  0.34853455818     0.838692038495      0.34853455818|  0.34853455818      0.34853455818     0.838692038495|] Cmatrix=[0                  0                  0| 0                  0                  0| 0                  0                  0|]
New Line.03551322_03551323 Phases=3 bus1=03551322.1.2.3 bus2=03551323.1.2.3 Units=km Length=0.06601968 Rmatrix=[ 1.08223972003     0.138998250219     0.138998250219| 0.138998250219      1.08223972004     0.138998250219| 0.138998250219     0.138998250219      1.08223972003|] Xmatrix=[0.838692038495      0.34853455818      0.34853455818|  0.34853455818     0.838692038495      0.34853455818|  0.34853455818      0.34853455818     0.838692038495|] Cmatrix=[0                  0                  0| 0                  0                  0| 0                  0                  0|]
New Line.03551323_03551324 Phases=3 bus1=03551323.1.2.3 bus2=03551324.1.2.3 Units=km Length=0.04809744 Rmatrix=[ 1.08223972004     0.138998250219     0.138998250219| 0.138998250219      1.08223972003     0.138998250219| 0.138998250219     0.138998250219      1.08223972003|] Xmatrix=[0.838692038495      0.34853455818      0.34853455818|  0.34853455818     0.838692038495      0.34853455818|  0.34853455818      0.34853455818     0.838692038495|] Cmatrix=[0                  0                  0| 0                  0                  0| 0                  0                  0|]
New Line.03551323_03551326 Phases=2 bus1=03551323.1.2 bus2=03551326.1.2 Units=km Length=0.0643128 Rmatrix=[1.63582677165      0.13845144357| 0.13845144357      1.63582677165|] Xmatrix=[0.902559055118      0.39468503937|  0.39468503937     0.902559055118|] Cmatrix=[0                  0| 0                  0|]
New Line.03551323_03551348 Phases=2 bus1=03551323.2.3 bus2=03551348.2.3 Units=km Length=0.03544824 Rmatrix=[1.63582677165      0.13845144357| 0.13845144357      1.63582677165|] Xmatrix=[0.902559055118      0.39468503937|  0.39468503937     0.902559055118|] Cmatrix=[0                  0| 0                  0|]
New Line.03551324_03551325 Phases=3 bus1=03551324.1.2.3 bus2=03551325.1.2.3 Units=km Length=0.22424136 Rmatrix=[ 1.08223972003     0.138998250219     0.138998250219| 0.138998250219      1.08223972004     0.138998250219| 0.138998250219     0.138998250219      1.08223972003|] Xmatrix=[0.838692038495      0.34853455818      0.34853455818|  0.34853455818     0.838692038495      0.34853455818|  0.34853455818      0.34853455818     0.838692038495|] Cmatrix=[0                  0                  0| 0                  0                  0| 0                  0                  0|]
New Line.03551326_03551327 Phases=2 bus1=03551326.1.2 bus2=03551327.1.2 Units=km Length=0.0522732 Rmatrix=[ 1.08223972004     0.138998250219| 0.138998250219      1.08223972003|] Xmatrix=[0.838692038494     0.348534558181| 0.348534558181     0.838692038495|] Cmatrix=[0                  0| 0                  0|]
New Line.03551348_03551349 Phases=2 bus1=03551348.2.3 bus2=03551349.2.3 Units=km Length=0.0621792 Rmatrix=[1.63582677165      0.13845144357| 0.13845144357      1.63582677165|] Xmatrix=[0.902559055118      0.39468503937|  0.39468503937     0.902559055118|] Cmatrix=[0                  0| 0                  0|]
New Line.03551327_03551333 Phases=2 bus1=03551327.1.2 bus2=03551333.1.2 Units=km Length=0.07562088 Rmatrix=[ 1.08223972003     0.138998250219| 0.138998250219      1.08223972003|] Xmatrix=[0.838692038493      0.34853455818|  0.34853455818     0.838692038495|] Cmatrix=[0                  0| 0                  0|]
New Line.03551327_03551328 Phases=1 bus1=03551327.1 bus2=03551328.1 Units=km Length=0.003048 Rmatrix=0.086942257 Xmatrix=0.37762467 Cmatrix=0
New Line.03551333_03551334 Phases=2 bus1=03551333.1.2 bus2=03551334.1.2 Units=km Length=0.0124968 Rmatrix=[ 1.08223972004     0.138998250219| 0.138998250219      1.08223972004|] Xmatrix=[0.838692038495      0.34853455818|  0.34853455818     0.838692038495|] Cmatrix=[0                  0| 0                  0|]
New Line.03551333_03551335 Phases=2 bus1=03551333.1.2 bus2=03551335.1.2 Units=km Length=0.0451104 Rmatrix=[ 1.14752843395     0.137029746282| 0.137029746282      1.14752843395|] Xmatrix=[0.879811898512     0.356189851268| 0.356189851268     0.879811898513|] Cmatrix=[0                  0| 0                  0|]
New Line.03551333_03551346 Phases=2 bus1=03551333.1.2 bus2=03551346.1.2 Units=km Length=0.03179064 Rmatrix=[ 1.14752843395     0.137029746282| 0.137029746282      1.14752843395|] Xmatrix=[0.879811898513     0.356189851269| 0.356189851269     0.879811898513|] Cmatrix=[0                  0| 0                  0|]
New Line.03551328a_03551329 Phases=1 bus1=03551328a.1 bus2=03551329.1 Units=km Length=0.0292608 Rmatrix=0.59350394 Xmatrix=0.47276903 Cmatrix=0
New Line.03551329_03551330 Phases=1 bus1=03551329.1 bus2=03551330.1 Units=km Length=0.0874776 Rmatrix=0.59350394 Xmatrix=0.47276903 Cmatrix=0
New Line.03551330_03551331 Phases=1 bus1=03551330.1 bus2=03551331.1 Units=km Length=0.1075944 Rmatrix=0.59350394 Xmatrix=0.47276903 Cmatrix=0
New Line.03551331_03551332 Phases=1 bus1=03551331.1 bus2=03551332.1 Units=km Length=0.003048 Rmatrix=0.59350394 Xmatrix=0.47276903 Cmatrix=0
New Line.03551335_03551336 Phases=2 bus1=03551335.1.2 bus2=03551336.1.2 Units=km Length=0.03834384 Rmatrix=[ 1.14752843395     0.137029746282| 0.137029746282      1.14752843395|] Xmatrix=[0.879811898512     0.356189851269| 0.356189851269     0.879811898513|] Cmatrix=[0                  0| 0                  0|]
New Line.03551335_03551345 Phases=2 bus1=03551335.1.2 bus2=03551345.1.2 Units=km Length=0.0286512 Rmatrix=[ 1.14752843395     0.137029746282| 0.137029746282      1.14752843395|] Xmatrix=[0.879811898513     0.356189851269| 0.356189851269     0.879811898513|] Cmatrix=[0                  0| 0                  0|]
New Line.03551346_03551347 Phases=2 bus1=03551346.1.2 bus2=03551347.1.2 Units=km Length=0.0585216 Rmatrix=[ 1.14752843395     0.137029746282| 0.137029746282      1.14752843395|] Xmatrix=[0.879811898513     0.356189851269| 0.356189851269     0.879811898513|] Cmatrix=[0                  0| 0                  0|]
New Line.03551336_03551337 Phases=2 bus1=03551336.1.2 bus2=03551337.1.2 Units=km Length=0.01298448 Rmatrix=[ 1.14752843394     0.137029746282| 0.137029746282      1.14752843395|] Xmatrix=[0.879811898511     0.356189851269| 0.356189851269     0.879811898513|] Cmatrix=[0                  0| 0                  0|]
New Line.03551336_03551339 Phases=2 bus1=03551336.1.2 bus2=03551339.1.2 Units=km Length=0.08766048 Rmatrix=[ 1.14752843395     0.137029746282| 0.137029746282      1.14752843395|] Xmatrix=[0.879811898513     0.356189851269| 0.356189851269     0.879811898513|] Cmatrix=[0                  0| 0                  0|]
New Line.03551336_03551342 Phases=2 bus1=03551336.1.2 bus2=03551342.1.2 Units=km Length=0.028956 Rmatrix=[ 1.14752843395     0.137029746282| 0.137029746282      1.14752843395|] Xmatrix=[0.879811898513     0.356189851269| 0.356189851269     0.879811898513|] Cmatrix=[0                  0| 0                  0|]
New Line.03551337_03551337a Phases=2 bus1=03551337.1.2 bus2=03551337a.1.2 Units=km Length=0.003048 Rmatrix=[ 0.124562554681    0.0376202974628| 0.0376202974628     0.124562554681|] Xmatrix=[0.612095363079     0.234470691164| 0.234470691164      0.61209536308|] Cmatrix=[0                  0| 0                  0|]
New Line.03551339_03551340 Phases=2 bus1=03551339.1.2 bus2=03551340.1.2 Units=km Length=0.05117592 Rmatrix=[ 1.14752843395     0.137029746282| 0.137029746282      1.14752843395|] Xmatrix=[0.879811898513     0.356189851269| 0.356189851269     0.879811898513|] Cmatrix=[0                  0| 0                  0|]
New Line.03551342_03551343 Phases=2 bus1=03551342.1.2 bus2=03551343.1.2 Units=km Length=0.1007364 Rmatrix=[ 1.14752843395     0.137029746282| 0.137029746282      1.14752843394|] Xmatrix=[0.879811898512     0.356189851269| 0.356189851269     0.879811898512|] Cmatrix=[0                  0| 0                  0|]
New Line.03551337a_03551338 Phases=2 bus1=03551337a.1.2 bus2=03551338.1.2 Units=km Length=0.094488 Rmatrix=[0.715441819773     0.121937882765| 0.121937882765     0.715441819773|] Xmatrix=[0.777996500437     0.305227471566| 0.305227471566     0.777996500438|] Cmatrix=[0                  0| 0                  0|]
New Line.03551340_03551341 Phases=2 bus1=03551340.1.2 bus2=03551341.1.2 Units=km Length=0.05824728 Rmatrix=[ 1.14752843395     0.137029746282| 0.137029746282      1.14752843395|] Xmatrix=[0.879811898513     0.356189851269| 0.356189851269     0.879811898513|] Cmatrix=[0                  0| 0                  0|]
New Line.03551343_03551344 Phases=2 bus1=03551343.1.2 bus2=03551344.1.2 Units=km Length=0.003048 Rmatrix=[ 1.14752843395     0.137029746282| 0.137029746282      1.14752843395|] Xmatrix=[0.879811898513     0.356189851269| 0.356189851269     0.879811898513|] Cmatrix=[0                  0| 0                  0|]
New Line.03551349_03551350 Phases=2 bus1=03551349.2.3 bus2=03551350.2.3 Units=km Length=0.07748016 Rmatrix=[1.63582677165      0.13845144357| 0.13845144357      1.63582677165|] Xmatrix=[0.902559055117      0.39468503937|  0.39468503937     0.902559055117|] Cmatrix=[0                  0| 0                  0|]
New Line.03551350_03551356 Phases=2 bus1=03551350.2.3 bus2=03551356.2.3 Units=km Length=0.06763512 Rmatrix=[ 1.63582677166     0.138451443569| 0.138451443569      1.63582677165|] Xmatrix=[0.902559055119     0.394685039369| 0.394685039369     0.902559055117|] Cmatrix=[0                  0| 0                  0|]
New Line.03551350_03551350a Phases=2 bus1=03551350.2.3 bus2=03551350a.2.3 Units=km Length=0.003048 Rmatrix=[ 0.124562554681    0.0376202974628| 0.0376202974628     0.124562554681|] Xmatrix=[ 0.61209536308     0.234470691164| 0.234470691164     0.612095363079|] Cmatrix=[0                  0| 0                  0|]
New Line.03551356_03551357 Phases=2 bus1=03551356.2.3 bus2=03551357.2.3 Units=km Length=0.03441192 Rmatrix=[1.63582677165      0.13845144357| 0.13845144357      1.63582677165|] Xmatrix=[0.902559055118      0.39468503937|  0.39468503937     0.902559055118|] Cmatrix=[0                  0| 0                  0|]
New Line.03551350a_03551351 Phases=2 bus1=03551350a.2.3 bus2=03551351.2.3 Units=km Length=0.062484 Rmatrix=[0.715441819773     0.121937882764| 0.121937882764     0.715441819772|] Xmatrix=[0.777996500438     0.305227471566| 0.305227471566     0.777996500437|] Cmatrix=[0                  0| 0                  0|]
New Line.03551351_03551352 Phases=2 bus1=03551351.2.3 bus2=03551352.2.3 Units=km Length=0.0896112 Rmatrix=[0.715441819773     0.121937882765| 0.121937882765     0.715441819773|] Xmatrix=[0.777996500437     0.305227471566| 0.305227471566     0.777996500437|] Cmatrix=[0                  0| 0                  0|]
New Line.03551352_03551353 Phases=2 bus1=03551352.2.3 bus2=03551353.2.3 Units=km Length=0.0856488 Rmatrix=[0.715441819773     0.121937882765| 0.121937882765     0.715441819773|] Xmatrix=[0.777996500437     0.305227471566| 0.305227471566     0.777996500437|] Cmatrix=[0                  0| 0                  0|]
New Line.03551353_03551354 Phases=2 bus1=03551353.2.3 bus2=03551354.2.3 Units=km Length=0.0505968 Rmatrix=[0.715441819773     0.121937882765| 0.121937882765     0.715441819772|] Xmatrix=[0.777996500438     0.305227471566| 0.305227471566     0.777996500438|] Cmatrix=[0                  0| 0                  0|]
New Line.03551354_03551355 Phases=2 bus1=03551354.2.3 bus2=03551355.2.3 Units=km Length=0.003048 Rmatrix=[0.715441819772     0.121937882765| 0.121937882765     0.715441819772|] Xmatrix=[0.777996500437     0.305227471566| 0.305227471566     0.777996500437|] Cmatrix=[0                  0| 0                  0|]
New Line.03551357_03551358 Phases=2 bus1=03551357.2.3 bus2=03551358.2.3 Units=km Length=0.05324856 Rmatrix=[1.63582677165      0.13845144357| 0.13845144357      1.63582677165|] Xmatrix=[0.902559055118      0.39468503937|  0.39468503937     0.902559055118|] Cmatrix=[0                  0| 0                  0|]
New Line.03551358_03551359 Phases=2 bus1=03551358.2.3 bus2=03551359.2.3 Units=km Length=0.03081528 Rmatrix=[1.63582677165      0.13845144357| 0.13845144357      1.63582677165|] Xmatrix=[0.902559055118      0.39468503937|  0.39468503937     0.902559055118|] Cmatrix=[0                  0| 0                  0|]
New Line.03551359_03551360 Phases=2 bus1=03551359.2.3 bus2=03551360.2.3 Units=km Length=0.108966 Rmatrix=[1.63582677165      0.13845144357| 0.13845144357      1.63582677165|] Xmatrix=[0.902559055118      0.39468503937|  0.39468503937     0.902559055118|] Cmatrix=[0                  0| 0                  0|]
New Line.03551359_03551361 Phases=2 bus1=03551359.2.3 bus2=03551361.2.3 Units=km Length=0.04096512 Rmatrix=[1.63582677165      0.13845144357| 0.13845144357      1.63582677165|] Xmatrix=[0.902559055118      0.39468503937|  0.39468503937     0.902559055118|] Cmatrix=[0                  0| 0                  0|]
New Line.03551361_03551362 Phases=2 bus1=03551361.2.3 bus2=03551362.2.3 Units=km Length=0.07095744 Rmatrix=[ 1.14752843395     0.137029746282| 0.137029746282      1.14752843395|] Xmatrix=[0.879811898513     0.356189851269| 0.356189851269     0.879811898513|] Cmatrix=[0                  0| 0                  0|]
New Line.03551361_03551364 Phases=2 bus1=03551361.2.3 bus2=03551364.2.3 Units=km Length=0.08830056 Rmatrix=[1.63582677165      0.13845144357| 0.13845144357      1.63582677165|] Xmatrix=[0.902559055118      0.39468503937|  0.39468503937     0.902559055118|] Cmatrix=[0                  0| 0                  0|]
New Line.03551362_03551363 Phases=2 bus1=03551362.2.3 bus2=03551363.2.3 Units=km Length=0.048768 Rmatrix=[ 1.14752843395     0.137029746282| 0.137029746282      1.14752843395|] Xmatrix=[0.879811898513     0.356189851269| 0.356189851269     0.879811898513|] Cmatrix=[0                  0| 0                  0|]
New Line.03551367a_03551368 Phases=2 bus1=03551367a.2.3 bus2=03551368.2.3 Units=km Length=0.05937504 Rmatrix=[1.63582677165      0.13845144357| 0.13845144357      1.63582677165|] Xmatrix=[0.902559055117      0.39468503937|  0.39468503937     0.902559055118|] Cmatrix=[0                  0| 0                  0|]
New Line.03551368_03551369 Phases=2 bus1=03551368.2.3 bus2=03551369.2.3 Units=km Length=0.16178784 Rmatrix=[1.63582677165      0.13845144357| 0.13845144357      1.63582677165|] Xmatrix=[0.902559055118      0.39468503937|  0.39468503937     0.902559055118|] Cmatrix=[0                  0| 0                  0|]
New Line.03551369_03551370 Phases=2 bus1=03551369.2.3 bus2=03551370.2.3 Units=km Length=0.09217152 Rmatrix=[1.63582677165      0.13845144357| 0.13845144357      1.63582677165|] Xmatrix=[0.902559055118      0.39468503937|  0.39468503937     0.902559055118|] Cmatrix=[0                  0| 0                  0|]
New Line.03551370_03551371 Phases=2 bus1=03551370.2.3 bus2=03551371.2.3 Units=km Length=0.0539496 Rmatrix=[ 1.14752843395     0.137029746282| 0.137029746282      1.14752843395|] Xmatrix=[0.879811898513     0.356189851269| 0.356189851269     0.879811898513|] Cmatrix=[0                  0| 0                  0|]
New Line.03551370_03551390 Phases=2 bus1=03551370.2.3 bus2=03551390.2.3 Units=km Length=0.08086344 Rmatrix=[ 1.14752843395     0.137029746282| 0.137029746282      1.14752843395|] Xmatrix=[0.879811898513     0.356189851269| 0.356189851269     0.879811898513|] Cmatrix=[0                  0| 0                  0|]
New Line.03551370_03551391 Phases=2 bus1=03551370.2.3 bus2=03551391.2.3 Units=km Length=0.02563368 Rmatrix=[ 1.14752843395     0.137029746282| 0.137029746282      1.14752843395|] Xmatrix=[0.879811898513     0.356189851269| 0.356189851269     0.879811898513|] Cmatrix=[0                  0| 0                  0|]
New Line.03551371_03551372 Phases=2 bus1=03551371.2.3 bus2=03551372.2.3 Units=km Length=0.03221736 Rmatrix=[ 1.14752843395     0.137029746282| 0.137029746282      1.14752843395|] Xmatrix=[0.879811898513     0.356189851269| 0.356189851269     0.879811898513|] Cmatrix=[0                  0| 0                  0|]
New Line.03551371_03551389 Phases=2 bus1=03551371.2.3 bus2=03551389.2.3 Units=km Length=0.07037832 Rmatrix=[ 1.14752843395     0.137029746282| 0.137029746282      1.14752843395|] Xmatrix=[0.879811898513     0.356189851269| 0.356189851269     0.879811898513|] Cmatrix=[0                  0| 0                  0|]
New Line.03551372_03551373 Phases=2 bus1=03551372.2.3 bus2=03551373.2.3 Units=km Length=0.08269224 Rmatrix=[ 1.14752843395     0.137029746282| 0.137029746282      1.14752843395|] Xmatrix=[0.879811898513     0.356189851269| 0.356189851269     0.879811898513|] Cmatrix=[0                  0| 0                  0|]
New Line.03551372_03551387 Phases=2 bus1=03551372.2.3 bus2=03551387.2.3 Units=km Length=0.0775716 Rmatrix=[ 1.14752843395     0.137029746282| 0.137029746282      1.14752843395|] Xmatrix=[0.879811898513     0.356189851269| 0.356189851269     0.879811898513|] Cmatrix=[0                  0| 0                  0|]
New Line.03551372_03551388 Phases=2 bus1=03551372.2.3 bus2=03551388.2.3 Units=km Length=0.01353312 Rmatrix=[ 1.14752843395     0.137029746282| 0.137029746282      1.14752843395|] Xmatrix=[0.879811898513     0.356189851269| 0.356189851269     0.879811898513|] Cmatrix=[0                  0| 0                  0|]
New Line.03551373_03551374 Phases=2 bus1=03551373.2.3 bus2=03551374.2.3 Units=km Length=0.04666488 Rmatrix=[ 1.14752843395     0.137029746282| 0.137029746282      1.14752843395|] Xmatrix=[0.879811898513     0.356189851269| 0.356189851269     0.879811898513|] Cmatrix=[0                  0| 0                  0|]
New Line.03551374_03551375 Phases=2 bus1=03551374.2.3 bus2=03551375.2.3 Units=km Length=0.01225296 Rmatrix=[ 1.14752843395     0.137029746282| 0.137029746282      1.14752843395|] Xmatrix=[0.879811898513     0.356189851269| 0.356189851269     0.879811898513|] Cmatrix=[0                  0| 0                  0|]
New Line.03551374_03551378 Phases=2 bus1=03551374.2.3 bus2=03551378.2.3 Units=km Length=0.0492252 Rmatrix=[ 1.14752843395     0.137029746282| 0.137029746282      1.14752843395|] Xmatrix=[0.879811898513     0.356189851269| 0.356189851269     0.879811898513|] Cmatrix=[0                  0| 0                  0|]
New Line.03551375_03551376 Phases=2 bus1=03551375.2.3 bus2=03551376.2.3 Units=km Length=0.003048 Rmatrix=[ 1.14752843395     0.137029746282| 0.137029746282      1.14752843395|] Xmatrix=[0.879811898513     0.356189851269| 0.356189851269     0.879811898513|] Cmatrix=[0                  0| 0                  0|]
New Line.03551375_03551377 Phases=2 bus1=03551375.2.3 bus2=03551377.2.3 Units=km Length=0.0667512 Rmatrix=[ 1.14752843395     0.137029746282| 0.137029746282      1.14752843395|] Xmatrix=[0.879811898513     0.356189851269| 0.356189851269     0.879811898513|] Cmatrix=[0                  0| 0                  0|]
New Line.03551378_03551379 Phases=2 bus1=03551378.2.3 bus2=03551379.2.3 Units=km Length=0.05519928 Rmatrix=[ 1.14752843395     0.137029746282| 0.137029746282      1.14752843395|] Xmatrix=[0.879811898513     0.356189851269| 0.356189851269     0.879811898513|] Cmatrix=[0                  0| 0                  0|]
New Line.03551379_03551380 Phases=2 bus1=03551379.2.3 bus2=03551380.2.3 Units=km Length=0.04593336 Rmatrix=[ 1.14752843395     0.137029746282| 0.137029746282      1.14752843395|] Xmatrix=[0.879811898513     0.356189851269| 0.356189851269     0.879811898513|] Cmatrix=[0                  0| 0                  0|]
New Line.03551379_03551385 Phases=2 bus1=03551379.2.3 bus2=03551385.2.3 Units=km Length=0.01338072 Rmatrix=[ 1.14752843395     0.137029746282| 0.137029746282      1.14752843395|] Xmatrix=[0.879811898512     0.356189851268| 0.356189851268     0.879811898513|] Cmatrix=[0                  0| 0                  0|]
New Line.03551380_03551381 Phases=2 bus1=03551380.2.3 bus2=03551381.2.3 Units=km Length=0.02609088 Rmatrix=[ 1.14752843395     0.137029746282| 0.137029746282      1.14752843395|] Xmatrix=[0.879811898513     0.356189851269| 0.356189851269     0.879811898513|] Cmatrix=[0                  0| 0                  0|]
New Line.03551385_03551385a Phases=2 bus1=03551385.2.3 bus2=03551385a.2.3 Units=km Length=0.003048 Rmatrix=[ 0.124562554681    0.0376202974628| 0.0376202974628     0.124562554681|] Xmatrix=[ 0.61209536308     0.234470691164| 0.234470691164      0.61209536308|] Cmatrix=[0                  0| 0                  0|]
New Line.03551381_03551382 Phases=2 bus1=03551381.2.3 bus2=03551382.2.3 Units=km Length=0.03233928 Rmatrix=[ 1.14752843395     0.137029746282| 0.137029746282      1.14752843395|] Xmatrix=[0.879811898513     0.356189851269| 0.356189851269     0.879811898513|] Cmatrix=[0                  0| 0                  0|]
New Line.03551382_03551383 Phases=2 bus1=03551382.2.3 bus2=03551383.2.3 Units=km Length=0.05522976 Rmatrix=[ 1.14752843394     0.137029746282| 0.137029746282      1.14752843395|] Xmatrix=[0.879811898511     0.356189851269| 0.356189851269     0.879811898513|] Cmatrix=[0                  0| 0                  0|]
New Line.03551383_03551383a Phases=2 bus1=03551383.2.3 bus2=03551383a.2.3 Units=km Length=0.003048 Rmatrix=[ 0.124562554681    0.0376202974628| 0.0376202974628     0.124562554681|] Xmatrix=[ 0.61209536308     0.234470691164| 0.234470691164      0.61209536308|] Cmatrix=[0                  0| 0                  0|]
New Line.03551383a_03551384 Phases=2 bus1=03551383a.2.3 bus2=03551384.2.3 Units=km Length=0.0947928 Rmatrix=[0.715441819772     0.121937882765| 0.121937882765     0.715441819773|] Xmatrix=[0.777996500437     0.305227471566| 0.305227471566     0.777996500438|] Cmatrix=[0                  0| 0                  0|]
New Line.03551385a_03551386 Phases=2 bus1=03551385a.2.3 bus2=03551386.2.3 Units=km Length=0.0560832 Rmatrix=[0.644028871391     0.113845144357| 0.113845144357     0.644028871391|] Xmatrix=[0.783136482939     0.298228346457| 0.298228346457      0.78313648294|] Cmatrix=[0                  0| 0                  0|]
New Line.03551394a_03551395 Phases=2 bus1=03551394a.2.3 bus2=03551395.2.3 Units=km Length=0.05952744 Rmatrix=[1.63582677165      0.13845144357| 0.13845144357      1.63582677165|] Xmatrix=[0.902559055118      0.39468503937|  0.39468503937     0.902559055118|] Cmatrix=[0                  0| 0                  0|]
New Line.035513a_03551301 Phases=2 bus1=035513a.1.3 bus2=03551301.1.3 Units=km Length=0.06833616 Rmatrix=[ 1.63582677167     0.138451443573| 0.138451443573      1.63582677164|] Xmatrix=[0.902559055122     0.394685039368| 0.394685039368     0.902559055126|] Cmatrix=[0                  0| 0                  0|]
New Line.035515_035516 Phases=3 bus1=035515.1.2.3 bus2=035516.1.2.3 Units=km Length=0.08692896 Rmatrix=[ 0.216097987752    0.0563210848644    0.0563210848644| 0.0563210848644     0.216097987752    0.0563210848644| 0.0563210848644    0.0563210848644     0.216097987752|] Xmatrix=[0.642497812773      0.24321959755      0.24321959755|  0.24321959755     0.642497812774      0.24321959755|  0.24321959755      0.24321959755     0.642497812774|] Cmatrix=[0                  0                  0| 0                  0                  0| 0                  0                  0|]
New Line.035516_035517 Phases=3 bus1=035516.1.2.3 bus2=035517.1.2.3 Units=km Length=0.0246888 Rmatrix=[ 0.216097987752    0.0563210848645    0.0563210848647| 0.0563210848645     0.216097987752    0.0563210848643| 0.0563210848647    0.0563210848643     0.216097987751|] Xmatrix=[0.642497812773      0.24321959755     0.243219597551|  0.24321959755     0.642497812774      0.24321959755| 0.243219597551      0.24321959755     0.642497812773|] Cmatrix=[0                  0                  0| 0                  0                  0| 0                  0                  0|]
New Line.035516_035516a Phases=2 bus1=035516.2.3 bus2=035516a.2.3 Units=km Length=0.003048 Rmatrix=[ 0.124562554681    0.0376202974628| 0.0376202974628     0.124562554681|] Xmatrix=[ 0.61209536308     0.234470691164| 0.234470691164      0.61209536308|] Cmatrix=[0                  0| 0                  0|]
New Line.035517_035518 Phases=3 bus1=035517.1.2.3 bus2=035518.1.2.3 Units=km Length=0.08345424 Rmatrix=[ 0.216097987751    0.0563210848643    0.0563210848644| 0.0563210848643     0.216097987752    0.0563210848645| 0.0563210848644    0.0563210848645     0.216097987752|] Xmatrix=[0.642497812773      0.24321959755      0.24321959755|  0.24321959755     0.642497812773      0.24321959755|  0.24321959755      0.24321959755     0.642497812773|] Cmatrix=[0                  0                  0| 0                  0                  0| 0                  0                  0|]
New Line.035517_035517a Phases=2 bus1=035517.1.3 bus2=035517a.1.3 Units=km Length=0.003048 Rmatrix=[ 0.124562554681    0.0376202974628| 0.0376202974628     0.124562554681|] Xmatrix=[0.612095363079     0.234470691164| 0.234470691164      0.61209536308|] Cmatrix=[0                  0| 0                  0|]
New Line.03551601_03551602 Phases=2 bus1=03551601.2.3 bus2=03551602.2.3 Units=km Length=0.05279136 Rmatrix=[ 1.08223972004     0.138998250219| 0.138998250219      1.08223972003|] Xmatrix=[0.838692038495      0.34853455818|  0.34853455818     0.838692038495|] Cmatrix=[0                  0| 0                  0|]
New Line.03551601_03551603 Phases=2 bus1=03551601.2.3 bus2=03551603.2.3 Units=km Length=0.01487424 Rmatrix=[ 1.14752843395     0.137029746282| 0.137029746282      1.14752843395|] Xmatrix=[0.879811898513     0.356189851269| 0.356189851269     0.879811898513|] Cmatrix=[0                  0| 0                  0|]
New Line.03551603_03551604 Phases=2 bus1=03551603.2.3 bus2=03551604.2.3 Units=km Length=0.04675632 Rmatrix=[ 1.14752843395     0.137029746282| 0.137029746282      1.14752843395|] Xmatrix=[0.879811898513     0.356189851269| 0.356189851269     0.879811898513|] Cmatrix=[0                  0| 0                  0|]
New Line.035516a_03551601 Phases=2 bus1=035516a.2.3 bus2=03551601.2.3 Units=km Length=0.01167384 Rmatrix=[ 1.14752843395     0.137029746282| 0.137029746282      1.14752843395|] Xmatrix=[0.879811898513     0.356189851269| 0.356189851269     0.879811898513|] Cmatrix=[0                  0| 0                  0|]
New Line.035516a_03551605 Phases=2 bus1=035516a.2.3 bus2=03551605.2.3 Units=km Length=0.02112264 Rmatrix=[ 1.14752843395     0.137029746282| 0.137029746282      1.14752843395|] Xmatrix=[0.879811898513     0.356189851269| 0.356189851269     0.879811898513|] Cmatrix=[0                  0| 0                  0|]
New Line.035518_03551801 Phases=2 bus1=035518.1.3 bus2=03551801.1.3 Units=km Length=0.04288536 Rmatrix=[ 1.08223972004     0.138998250219| 0.138998250219      1.08223972004|] Xmatrix=[0.838692038495      0.34853455818|  0.34853455818     0.838692038495|] Cmatrix=[0                  0| 0                  0|]
New Line.035518_035519 Phases=3 bus1=035518.1.2.3 bus2=035519.1.2.3 Units=km Length=0.03328416 Rmatrix=[ 0.216097987752    0.0563210848644    0.0563210848644| 0.0563210848644     0.216097987752    0.0563210848644| 0.0563210848644    0.0563210848644     0.216097987752|] Xmatrix=[0.642497812773      0.24321959755      0.24321959755|  0.24321959755     0.642497812773      0.24321959755|  0.24321959755      0.24321959755     0.642497812773|] Cmatrix=[0                  0                  0| 0                  0                  0| 0                  0                  0|]
New Line.035518_03551802 Phases=2 bus1=035518.2.3 bus2=03551802.2.3 Units=km Length=0.10158984 Rmatrix=[ 1.08223972004     0.138998250219| 0.138998250219      1.08223972003|] Xmatrix=[0.838692038495      0.34853455818|  0.34853455818     0.838692038495|] Cmatrix=[0                  0| 0                  0|]
New Line.03551701_03551702 Phases=2 bus1=03551701.1.3 bus2=03551702.1.3 Units=km Length=0.02883408 Rmatrix=[ 1.08223972004     0.138998250219| 0.138998250219      1.08223972004|] Xmatrix=[0.838692038495      0.34853455818|  0.34853455818     0.838692038495|] Cmatrix=[0                  0| 0                  0|]
New Line.03551702_03551703 Phases=2 bus1=03551702.1.3 bus2=03551703.1.3 Units=km Length=0.02670048 Rmatrix=[ 1.08223972003     0.138998250219| 0.138998250219      1.08223972004|] Xmatrix=[0.838692038495      0.34853455818|  0.34853455818     0.838692038495|] Cmatrix=[0                  0| 0                  0|]
New Line.03551703_03551704 Phases=2 bus1=03551703.1.3 bus2=03551704.1.3 Units=km Length=0.05617464 Rmatrix=[ 1.14752843395     0.137029746282| 0.137029746282      1.14752843395|] Xmatrix=[0.879811898513     0.356189851269| 0.356189851269     0.879811898513|] Cmatrix=[0                  0| 0                  0|]
New Line.03551703_03551708 Phases=2 bus1=03551703.1.3 bus2=03551708.1.3 Units=km Length=0.11344656 Rmatrix=[ 1.08223972003     0.138998250219| 0.138998250219      1.08223972003|] Xmatrix=[0.838692038495      0.34853455818|  0.34853455818     0.838692038495|] Cmatrix=[0                  0| 0                  0|]
New Line.03551704_03551705 Phases=2 bus1=03551704.1.3 bus2=03551705.1.3 Units=km Length=0.06001512 Rmatrix=[ 1.14752843395     0.137029746282| 0.137029746282      1.14752843395|] Xmatrix=[0.879811898513     0.356189851269| 0.356189851269     0.879811898513|] Cmatrix=[0                  0| 0                  0|]
New Line.03551708_03551709 Phases=2 bus1=03551708.1.3 bus2=03551709.1.3 Units=km Length=0.04462272 Rmatrix=[ 1.08223972003     0.138998250218| 0.138998250218      1.08223972004|] Xmatrix=[0.838692038494      0.34853455818|  0.34853455818     0.838692038496|] Cmatrix=[0                  0| 0                  0|]
New Line.03551708_03551715 Phases=2 bus1=03551708.1.3 bus2=03551715.1.3 Units=km Length=0.09116568 Rmatrix=[ 1.08223972004     0.138998250219| 0.138998250219      1.08223972004|] Xmatrix=[0.838692038495      0.34853455818|  0.34853455818     0.838692038495|] Cmatrix=[0                  0| 0                  0|]
New Line.03551708_03551716 Phases=2 bus1=03551708.1.3 bus2=03551716.1.3 Units=km Length=0.05248656 Rmatrix=[0.715441819773     0.121937882765| 0.121937882765     0.715441819773|] Xmatrix=[0.777996500437     0.305227471566| 0.305227471566     0.777996500437|] Cmatrix=[0                  0| 0                  0|]
New Line.03551705_03551706 Phases=2 bus1=03551705.1.3 bus2=03551706.1.3 Units=km Length=0.04489704 Rmatrix=[ 1.14752843395     0.137029746282| 0.137029746282      1.14752843395|] Xmatrix=[0.879811898513     0.356189851269| 0.356189851269     0.879811898513|] Cmatrix=[0                  0| 0                  0|]
New Line.03551706_03551707 Phases=2 bus1=03551706.1.3 bus2=03551707.1.3 Units=km Length=0.003048 Rmatrix=[ 1.14752843395     0.137029746282| 0.137029746282      1.14752843395|] Xmatrix=[0.879811898512     0.356189851269| 0.356189851269     0.879811898513|] Cmatrix=[0                  0| 0                  0|]
New Line.03551709_03551709a Phases=2 bus1=03551709.1.3 bus2=03551709a.1.3 Units=km Length=0.003048 Rmatrix=[ 0.124562554681    0.0376202974628| 0.0376202974628     0.124562554681|] Xmatrix=[ 0.61209536308     0.234470691163| 0.234470691163      0.61209536308|] Cmatrix=[0                  0| 0                  0|]
New Line.03551709a_03551710 Phases=2 bus1=03551709a.1.3 bus2=03551710.1.3 Units=km Length=0.1274064 Rmatrix=[0.715441819771     0.121937882765| 0.121937882765     0.715441819771|] Xmatrix=[0.777996500436     0.305227471566| 0.305227471566     0.777996500436|] Cmatrix=[0                  0| 0                  0|]
New Line.03551710_03551711 Phases=2 bus1=03551710.1.3 bus2=03551711.1.3 Units=km Length=0.0694944 Rmatrix=[0.715441819773     0.121937882765| 0.121937882765     0.715441819773|] Xmatrix=[0.777996500437     0.305227471566| 0.305227471566     0.777996500437|] Cmatrix=[0                  0| 0                  0|]
New Line.03551710_03551712 Phases=2 bus1=03551710.1.3 bus2=03551712.1.3 Units=km Length=0.16002 Rmatrix=[0.715441819773     0.121937882765| 0.121937882765     0.715441819773|] Xmatrix=[0.777996500437     0.305227471566| 0.305227471566     0.777996500437|] Cmatrix=[0                  0| 0                  0|]
New Line.03551710_03551714 Phases=2 bus1=03551710.1.3 bus2=03551714.1.3 Units=km Length=0.1517904 Rmatrix=[0.715441819773     0.121937882765| 0.121937882765     0.715441819773|] Xmatrix=[0.777996500437     0.305227471566| 0.305227471566     0.777996500437|] Cmatrix=[0                  0| 0                  0|]
New Line.03551712_03551713 Phases=2 bus1=03551712.1.3 bus2=03551713.1.3 Units=km Length=0.1094232 Rmatrix=[0.715441819773     0.121937882765| 0.121937882765     0.715441819773|] Xmatrix=[0.777996500437     0.305227471566| 0.305227471566     0.777996500437|] Cmatrix=[0                  0| 0                  0|]
New Line.035517a_03551701 Phases=2 bus1=035517a.1.3 bus2=03551701.1.3 Units=km Length=0.07144512 Rmatrix=[ 1.08223972004     0.138998250219| 0.138998250219      1.08223972004|] Xmatrix=[0.838692038496     0.348534558181| 0.348534558181     0.838692038495|] Cmatrix=[0                  0| 0                  0|]
New Line.03551802_03551803 Phases=2 bus1=03551802.2.3 bus2=03551803.2.3 Units=km Length=0.05160264 Rmatrix=[ 1.08223972003     0.138998250219| 0.138998250219      1.08223972003|] Xmatrix=[0.838692038495      0.34853455818|  0.34853455818     0.838692038495|] Cmatrix=[0                  0| 0                  0|]
New Line.035519_035520 Phases=3 bus1=035519.1.2.3 bus2=035520.1.2.3 Units=km Length=0.08763 Rmatrix=[ 0.216097987752    0.0563210848645    0.0563210848645| 0.0563210848645     0.216097987752    0.0563210848644| 0.0563210848645    0.0563210848644     0.216097987751|] Xmatrix=[0.642497812773      0.24321959755      0.24321959755|  0.24321959755     0.642497812773      0.24321959755|  0.24321959755      0.24321959755     0.642497812773|] Cmatrix=[0                  0                  0| 0                  0                  0| 0                  0                  0|]
New Line.035520_035521 Phases=3 bus1=035520.1.2.3 bus2=035521.1.2.3 Units=km Length=0.1650492 Rmatrix=[ 0.216097987752    0.0563210848644    0.0563210848638| 0.0563210848644     0.216097987752     0.056321084865| 0.0563210848638     0.056321084865     0.216097987752|] Xmatrix=[0.642497812776     0.243219597551      0.24321959755| 0.243219597551     0.642497812773     0.243219597551|  0.24321959755     0.243219597551      0.64249781278|] Cmatrix=[0                  0                  0| 0                  0                  0| 0                  0                  0|]
New Line.035520_035520a Phases=2 bus1=035520.1.3 bus2=035520a.1.3 Units=km Length=0.003048 Rmatrix=[ 0.124562554681    0.0376202974628| 0.0376202974628     0.124562554681|] Xmatrix=[ 0.61209536308     0.234470691164| 0.234470691164     0.612095363079|] Cmatrix=[0                  0| 0                  0|]
New Line.035521_035522 Phases=3 bus1=035521.1.2.3 bus2=035522.1.2.3 Units=km Length=0.01804416 Rmatrix=[ 0.251312335958    0.0629921259842    0.0629921259842| 0.0629921259842     0.251312335958    0.0629921259842| 0.0629921259842    0.0629921259842     0.251312335958|] Xmatrix=[0.652230971129     0.246719160105     0.246719160105| 0.246719160105     0.652230971128     0.246719160105| 0.246719160105     0.246719160105     0.652230971129|] Cmatrix=[0                  0                  0| 0                  0                  0| 0                  0                  0|]
New Line.035520a_03552001 Phases=2 bus1=035520a.1.3 bus2=03552001.1.3 Units=km Length=0.07808976 Rmatrix=[1.63582677165      0.13845144357| 0.13845144357      1.63582677165|] Xmatrix=[0.902559055117      0.39468503937|  0.39468503937     0.902559055118|] Cmatrix=[0                  0| 0                  0|]
New Line.035522_035523 Phases=3 bus1=035522.1.2.3 bus2=035523.1.2.3 Units=km Length=0.0484632 Rmatrix=[ 0.251312335958    0.0629921259843    0.0629921259842| 0.0629921259843     0.251312335958    0.0629921259843| 0.0629921259842    0.0629921259843     0.251312335958|] Xmatrix=[0.652230971128     0.246719160105     0.246719160105| 0.246719160105     0.652230971129     0.246719160105| 0.246719160105     0.246719160105     0.652230971128|] Cmatrix=[0                  0                  0| 0                  0                  0| 0                  0                  0|]
New Line.035523_035524 Phases=3 bus1=035523.1.2.3 bus2=035524.1.2.3 Units=km Length=0.096012 Rmatrix=[ 0.251312335958    0.0629921259843    0.0629921259844| 0.0629921259843     0.251312335958    0.0629921259842| 0.0629921259844    0.0629921259842     0.251312335958|] Xmatrix=[0.652230971127     0.246719160105     0.246719160105| 0.246719160105     0.652230971128     0.246719160105| 0.246719160105     0.246719160105     0.652230971128|] Cmatrix=[0                  0                  0| 0                  0                  0| 0                  0                  0|]
New Line.035524_035524a Phases=3 bus1=035524.1.2.3 bus2=035524a.1.2.3 Units=km Length=0.003048 Rmatrix=[ 0.124562554681    0.0376202974628    0.0376202974629| 0.0376202974628     0.124562554681    0.0376202974628| 0.0376202974629    0.0376202974628     0.124562554681|] Xmatrix=[ 0.61209536308     0.234470691164     0.234470691164| 0.234470691164     0.612095363079     0.234470691164| 0.234470691164     0.234470691164      0.61209536308|] Cmatrix=[0                  0                  0| 0                  0                  0| 0                  0                  0|]
New Line.035524a_035525 Phases=3 bus1=035524a.1.2.3 bus2=035525.1.2.3 Units=km Length=0.0630936 Rmatrix=[ 0.251312335958    0.0629921259842    0.0629921259845| 0.0629921259842     0.251312335958    0.0629921259843| 0.0629921259845    0.0629921259843     0.251312335958|] Xmatrix=[0.652230971125     0.246719160104     0.246719160105| 0.246719160104     0.652230971131     0.246719160106| 0.246719160105     0.246719160106     0.652230971131|] Cmatrix=[0                  0                  0| 0                  0                  0| 0                  0                  0|]
New Line.035525_03552501 Phases=3 bus1=035525.1.2.3 bus2=03552501.1.2.3 Units=km Length=0.04636008 Rmatrix=[ 0.251312335958    0.0629921259842    0.0629921259842| 0.0629921259842     0.251312335958    0.0629921259843| 0.0629921259842    0.0629921259843     0.251312335958|] Xmatrix=[0.652230971129     0.246719160105     0.246719160105| 0.246719160105     0.652230971129     0.246719160105| 0.246719160105     0.246719160105     0.652230971129|] Cmatrix=[0                  0                  0| 0                  0                  0| 0                  0                  0|]
New Line.035525_035526 Phases=3 bus1=035525.1.2.3 bus2=035526.1.2.3 Units=km Length=0.02139696 Rmatrix=[ 0.493766404199    0.0974409448819    0.0974409448819| 0.0974409448819     0.493766404199    0.0974409448819| 0.0974409448819    0.0974409448819       0.4937664042|] Xmatrix=[0.753718285214     0.280621172353     0.280621172353| 0.280621172353     0.753718285215     0.280621172353| 0.280621172353     0.280621172353     0.753718285215|] Cmatrix=[0                  0                  0| 0                  0                  0| 0                  0                  0|]
New Line.03552501_03552502 Phases=3 bus1=03552501.1.2.3 bus2=03552502.1.2.3 Units=km Length=0.05343144 Rmatrix=[ 0.251312335958    0.0629921259842    0.0629921259842| 0.0629921259842     0.251312335958    0.0629921259843| 0.0629921259842    0.0629921259843     0.251312335958|] Xmatrix=[0.652230971128     0.246719160105     0.246719160105| 0.246719160105     0.652230971129     0.246719160105| 0.246719160105     0.246719160105     0.652230971129|] Cmatrix=[0                  0                  0| 0                  0                  0| 0                  0                  0|]
...